16
	Energy:      20.8970543
C         -2.94709        0.79616       -0.00000
C         -2.62695       -0.56512        0.00000
N         -1.95960        1.73280        0.00000
C         -0.64607        1.37970       -0.00000
C         -0.28236        0.01663       -0.00000
C         -1.28691       -0.95792        0.00000
C          1.07417       -0.32791       -0.00000
C          2.04037        0.68027        0.00000
C          1.63978        2.02009        0.00000
N          0.31693        2.34026        0.00000
H         -3.98306        1.10765       -0.00000
H         -1.03597       -2.01188       -0.00000
H         -3.41273       -1.30940       -0.00000
H          2.38285        2.80628       -0.00000
H          1.38167       -1.36678        0.00000
H          3.09249        0.42640       -0.00000
